GALVESTON BAY                          ! 32 CHARACTER ALPHANUMERIC RUN DESCRIPTION
R02                                    ! 24 CHARACTER ALPANUMERIC RUN IDENTIFICATION 
 1                                     ! NFOVER - NONFATAL ERROR OVERRIDE OPTION
 2                                     ! NABOUT - ABREVIATED OUTPUT OPTION PARAMETER
 1                                     ! NSCREEN - SCREEN OUTPUT (0=NO SCREEN OUTPUT, 1=SCREEN OUTPUT)
 0                                     ! IHOT - parameter fort hot start, 0=cold, 67-read fort.67 (binary)
 1                                     ! ICS - COORDINATE SYSTEM SELECTION PARAMETER
 0                                     ! IM - MODEL TYPE (0=2DDI, 1=3DL VS, 2=3DL DSS)
 1                                     ! NOLIBF - nonlinear bottom friction
 2                                     ! NOLIFA - nonlinear finite amplitude
 1                                     ! NOLICA - nonlinear advec (spat grads)
 1                                     ! NOLICAT - nonlinear advec (time derivs)
 1                                     ! NWP - VARIABLE BOTTOM FRICTION AND LATERAL VISCOSITY OPTION PARAMETER
mannings_n_at_sea_floor
 0                                     ! NCOR - VARIABLE CORIOLIS IN SPACE OPTION PARAMETER
 0                                     ! NTIP - TIDAL POTENTIAL OPTION PARAMETER
 0                                     ! NWS - WIND STRESS AND BAROMETRIC PRESSURE OPTION PARAMETER
 1                                     ! NRAMP - RAMP FUNCTION OPTION
 9.81                                  ! G - ACCELERATION DUE TO GRAVITY - DETERMINES UNITS 
 0.04                                  ! TAU0 - WEIGHTING FACTOR IN GWCE
 2.0                                   ! DT - TIME STEP (IN SECONDS)
 0.0                                   ! STATIM - STARTING TIME (IN DAYS)
 0.0                                   ! REFTIM - REFERENCE TIME (IN DAYS)
 6.00                                  ! RNDAY - TOTAL LENGTH OF SIMULATION (IN DAYS) (12.0 DAYS)
 0.5                                   ! DRAMP - DURATION OF RAMP FUNCTION (IN DAYS)
 0.35 0.30 0.35                        ! TIME WEIGHTING FACTORS FOR THE GWCE EQUATION
 0.010 2 1 .05                         ! H0 - MIMINMUM CUTOFF DEPTH, NODEDRYMIN, NODEWETMIN, VELMIN
 282.5 24.0                            ! SLAM0,SFEA0 - CENTER OF CPP PROJECTION IN DEGREES LONG/LAT
 0.0030  1.0 10.0 .3333                ! CF - BOTTOM FRICTION COEFFICIENT USED WHEN NOLI = 2 OR 3; IGNORED IF NWP = 1
 10.0, 75.0                            ! ESLM, ESLC - LATERAL EDDY VISCOSITY COEFFICIENT; IGNORED IF NWP =1
 0                                     ! CORI - CORIOLIS PARAMETER - IGNORED IF NCOR = 1, 7.07E-5
 0                                     ! NUMBER OF TIDAL POTENTIAL CONSTITUENTS BEING FORCED
 0                                     ! NBFR - TOTAL NUMBER OF FORCING FREQUENCIES ON OPEN BOUNDARIES
 0.0                                   ! ANGINN : INNER ANGLE THRESHOLD
 0                                     ! NFFR - TOTAL NUMBER OF FORCING FREQUENCIES ON FLUX BOUNDARIES
 0 0.0 12.0 150                        ! NOUTE,TOUTSE,TOUTFE,NSPOOLE:ELEV STATION OUTPUT INFO (UNIT  61)
 0                                     ! TOTAL NUMBER OF ELEVATION RECORDING STATIONS
 0 0.0 12.0 150                        ! NOUTV,TOUTSV,TOUTFV,NSPOOLV:ELEV STATION OUTPUT INFO (UNIT  62)
 0                                     ! TOTAL NUMBER OF VELOCITY RECORDING STATIONS
 7 0.0 12.0 900                        ! NOUTGE,TOUTSGE,TOUTFGE,NSPOOLGE : GLOBAL OUTPUT INFO (UNIT  63)
 7 0.0 12.0 900                        ! NOUTGV,TOUTSGV,TOUTFGV,NSPOOLGV : GLOBAL OUTPUT INFO (UNIT  64)
 0                                     ! NHARF - NUMBER OF FREQENCIES IN HARMONIC ANALYSIS
 0.000 0.000 0 0.000                   ! THAS,THAF,NHAINC,FMV - HARMONIC ANALYSIS PARAMETERS
 0 0 0 0                               ! NHASE,NHASV,NHAGE,NHAGV - CONTROL HARMONIC ANALYSIS AND OUTPUT TO UNITS 51,52,53,54
 1 1800                                ! NHSTAR,NHSINC - HOT START FILE GENERATION PARAMETERS
 1 0 1.000000000E-005 25               ! ITITER, ISLDIA, CONVCR, ITMAX - ALGEBRAIC SOLUTION PARAMETERS

