 pseudo_1d_x1_t1
 M2,M4,M6, and STEADY, min. depth = 2.0   ! 20 CHARACTER ALPANUMERIC RUN IDENTIFICATION
 1                                        ! NFOVER - NONFATAL ERROR OVERRIDE OPTION
 0                                        ! NABOUT - ABREVIATED OUTPUT OPTION PARAMETER
 1                                        ! NSCREEN - OUTPUT TO UNIT 6 PARAMETER
 0                                        ! IHOT - parameter fort hot start, 0=cold, 67-read fort.67 (binary)
 1                                        ! ICS - COORDINATE SYSTEM SELECTION PARAMETER
 0                                        ! IM - MODEL RUN TYPE: 0=2DDI, 1=3DL(VS), 2=3DL(DSS)
 1                                        ! NOLIBF - NONLINEAR BOTTOM FRICTION OPTION
 1                                        ! NOLIFA - OPTION TO INCLUDE FINITE AMPLITUDE TERMS
 1                                        ! NOLICA - OPTION TO INCLUDE CONVECTIVE ACCELERATION TERMS
 1                                        ! NOLICAT - OPTION TO CONSIDER TIME DERIVATIVE OF CONV ACC TERMS
 0                                        ! NWP - VARIABLE BOTTOM FRICTION AND LATERAL VISCOSITY OPTION PARAMETER
 0                                        ! NCOR - VARIABLE CORIOLIS IN SPACE OPTION PARAMETER
 0                                        ! NTIP - TIDAL POTENTIAL OPTION PARAMETER
 0                                        ! NWS - WIND STRESS AND BAROMETRIC PRESSURE OPTION PARAMETER
 0                                        ! NRAMP - RAMP FUNCTION OPTION
 9.81                                     ! G - ACCELERATION DUE TO GRAVITY - DETERMINES UNITS 
 0.0050                                   ! TAU0 - WEIGHTING FACTOR IN GWCE
 0.125                                    ! DT - TIME STEP (IN SECONDS)
 0.0                                      ! STATIM - STARTING TIME (IN DAYS)
 0.0                                      ! REFTIM - REFERENCE TIME (IN DAYS)
 0.25                                     ! RNDAY - TOTAL LENGTH OF SIMULATION (IN DAYS)
 0.0                                      ! DRAMP - DURATION OF RAMP FUNCTION (IN DAYS)
 0.350 0.300 0.350                        ! TIME WEIGHTING FACTORS FOR THE GWCE EQUATION
 0.010 0 0 .01                            ! H0, NODEDRYMIN, NODEWETMIN, VELMIN
 300. 24.                                 ! SLAM0,SFEA0 - CENTER OF CPP PROJECTION IN DEGREES LONG/LAT
 0.001, 0.0 10.0 1.3333                   ! FFACTOR, HBREAK, FTHETA, FGAMMA
 0.0                                      ! ESL - LATERAL EDDY VISCOSITY COEFFICIENT; IGNORED IF NWP =1
 0.0                                      ! CORI - CORIOLIS PARAMETER - IGNORED IF NCOR = 1
 0                                        ! NUMBER OF TIDAL POTENTIAL CONSTITUENTS BEING FORCED
 0                                        ! NBFR - TOTAL NUMBER OF FORCING FREQUENCIES ON OPEN BOUNDARIES
 80.000                                   ! ANGINN : INNER ANGLE THRESHOLD ! Originally 110
 0                                        !  NFFR 
 1 6.0 8.0  30  	                      ! NOUTE,TOUTSE,TOUTFE,NSPOOLE:ELEV STATION OUTPUT INFO (UNIT  61)
 0  					                  ! NSTAE - TOTAL NUMBER OF ELEVATION RECORDING STATIONS
 1 6.0 8.0  30 			                  ! NOUTV,TOUTSV,TOUTFV,NSPOOLV:VEL STATION OUTPUT INFO (UNIT  61)
 0  					                  ! NSTAV - TOTAL NUMBER OF VELOCITY RECORDING STATIONS
 7 0.0 12.42 400 		              	  ! NOUTGE,TOUTSGE,TOUTFGE,NSPOOLGE:GLOBAL ELEV OUTPUT INFO (UNIT  63)
 7 0.0 12.42 400 		              	  ! NOUTGV,TOUTSGV,TOUTFGV,NSPOOLGV:GLOBAL
 0                                        ! NHARF - NUMBER OF FREQENCIES IN HARMONIC ANALYSIS
 10.350 12.420 40 0.000                   ! THAS,THAF,NHAINC,FMV - HARMONIC ANALYSIS PARAMETERS
 0 0 1 1                                  ! NHASE,NHASV,NHAGE,NHAGV - CONTROL HARMONIC ANALYSIS AND OUTPUT TO UNITS 51,52,53,54
 1 8600                                   ! NHSTAR,NHSINC - HOT START FILE GENERATION PARAMETERS
 1 0 1.000000000E-006 25                  ! ITITER, ISLDIA, CONVCR, ITMAX - ALGEBRAIC SOLUTION PARAMETERS











